data_image0
_chemical_formula_structural       Li2Mn2O4Li2Mn2O4Li2Mn2O4Li2Mn2O4Li2Mn2O4Li2Mn2O4Li2Mn2O4Li2Mn2O4
_chemical_formula_sum              "Li16 Mn16 O32"
_cell_length_a       5.737558
_cell_length_b       9.26895
_cell_length_c       11.665014
_cell_angle_alpha    90.0
_cell_angle_beta     90.0
_cell_angle_gamma    90.0

_space_group_name_H-M_alt    "P 1"
_space_group_IT_number       1

loop_
  _space_group_symop_operation_xyz
  'x, y, z'

loop_
  _atom_site_type_symbol
  _atom_site_label
  _atom_site_symmetry_multiplicity
  _atom_site_fract_x
  _atom_site_fract_y
  _atom_site_fract_z
  _atom_site_occupancy
  Li  Li1       1.0  0.25  0.25  0.18987525  1.0000
  Li  Li2       1.0  0.0  0.0  0.31012475  1.0000
  Mn  Mn1       1.0  0.25  0.25  0.43162625  1.0000
  Mn  Mn2       1.0  0.0  0.0  0.06837375  1.0000
  O   O1        1.0  0.25  0.0  0.18041225  1.0000
  O   O2        1.0  0.0  0.25  0.04925675  1.0000
  O   O3        1.0  0.25  0.0  0.45074325000000004  1.0000
  O   O4        1.0  0.0  0.25  0.31958775  1.0000
  Li  Li3       1.0  0.25  0.25  0.68987525  1.0000
  Li  Li4       1.0  0.0  0.0  0.81012475  1.0000
  Mn  Mn3       1.0  0.25  0.25  0.9316262499999999  1.0000
  Mn  Mn4       1.0  0.0  0.0  0.56837375  1.0000
  O   O5        1.0  0.25  0.0  0.68041225  1.0000
  O   O6        1.0  0.0  0.25  0.54925675  1.0000
  O   O7        1.0  0.25  0.0  0.95074325  1.0000
  O   O8        1.0  0.0  0.25  0.8195877500000001  1.0000
  Li  Li5       1.0  0.25  0.75  0.18987525  1.0000
  Li  Li6       1.0  0.0  0.5  0.31012475  1.0000
  Mn  Mn5       1.0  0.25  0.75  0.43162625  1.0000
  Mn  Mn6       1.0  0.0  0.5  0.06837375  1.0000
  O   O9        1.0  0.25  0.5  0.18041225  1.0000
  O   O10       1.0  0.0  0.75  0.04925675  1.0000
  O   O11       1.0  0.25  0.5  0.45074325000000004  1.0000
  O   O12       1.0  0.0  0.75  0.31958775  1.0000
  Li  Li7       1.0  0.25  0.75  0.68987525  1.0000
  Li  Li8       1.0  0.0  0.5  0.81012475  1.0000
  Mn  Mn7       1.0  0.25  0.75  0.9316262499999999  1.0000
  Mn  Mn8       1.0  0.0  0.5  0.56837375  1.0000
  O   O13       1.0  0.25  0.5  0.68041225  1.0000
  O   O14       1.0  0.0  0.75  0.54925675  1.0000
  O   O15       1.0  0.25  0.5  0.95074325  1.0000
  O   O16       1.0  0.0  0.75  0.8195877500000001  1.0000
  Li  Li9       1.0  0.75  0.25  0.18987525  1.0000
  Li  Li10      1.0  0.5  0.0  0.31012475  1.0000
  Mn  Mn9       1.0  0.75  0.25  0.43162625  1.0000
  Mn  Mn10      1.0  0.5  0.0  0.06837375  1.0000
  O   O17       1.0  0.75  0.0  0.18041225  1.0000
  O   O18       1.0  0.5  0.25  0.04925675  1.0000
  O   O19       1.0  0.75  0.0  0.45074325000000004  1.0000
  O   O20       1.0  0.5  0.25  0.31958775  1.0000
  Li  Li11      1.0  0.75  0.25  0.68987525  1.0000
  Li  Li12      1.0  0.5  0.0  0.81012475  1.0000
  Mn  Mn11      1.0  0.75  0.25  0.9316262499999999  1.0000
  Mn  Mn12      1.0  0.5  0.0  0.56837375  1.0000
  O   O21       1.0  0.75  0.0  0.68041225  1.0000
  O   O22       1.0  0.5  0.25  0.54925675  1.0000
  O   O23       1.0  0.75  0.0  0.95074325  1.0000
  O   O24       1.0  0.5  0.25  0.8195877500000001  1.0000
  Li  Li13      1.0  0.75  0.75  0.18987525  1.0000
  Li  Li14      1.0  0.5  0.5  0.31012475  1.0000
  Mn  Mn13      1.0  0.75  0.75  0.43162625  1.0000
  Mn  Mn14      1.0  0.5  0.5  0.06837375  1.0000
  O   O25       1.0  0.75  0.5  0.18041225  1.0000
  O   O26       1.0  0.5  0.75  0.04925675  1.0000
  O   O27       1.0  0.75  0.5  0.45074325000000004  1.0000
  O   O28       1.0  0.5  0.75  0.31958775  1.0000
  Li  Li15      1.0  0.75  0.75  0.68987525  1.0000
  Li  Li16      1.0  0.5  0.5  0.81012475  1.0000
  Mn  Mn15      1.0  0.75  0.75  0.9316262499999999  1.0000
  Mn  Mn16      1.0  0.5  0.5  0.56837375  1.0000
  O   O29       1.0  0.75  0.5  0.68041225  1.0000
  O   O30       1.0  0.5  0.75  0.54925675  1.0000
  O   O31       1.0  0.75  0.5  0.95074325  1.0000
  O   O32       1.0  0.5  0.75  0.8195877500000001  1.0000
