# generated using pymatgen
data_LiGa(SeO3)2
_symmetry_space_group_name_H-M   'P 1'
_cell_length_a   10.73394800
_cell_length_b   10.73394800
_cell_length_c   10.01945800
_cell_angle_alpha   90.00000000
_cell_angle_beta   90.00000000
_cell_angle_gamma   90.00000000
_symmetry_Int_Tables_number   1
_chemical_formula_structural   LiGa(SeO3)2
_chemical_formula_sum   'Li8 Ga8 Se16 O48'
_cell_volume   1154.41830150
_cell_formula_units_Z   8
loop_
 _symmetry_equiv_pos_site_id
 _symmetry_equiv_pos_as_xyz
  1  'x, y, z'
loop_
 _atom_type_symbol
 _atom_type_oxidation_number
  Li+  1.0
  Ga3+  3.0
  Se4+  4.0
  O2-  -2.0
loop_
 _atom_site_type_symbol
 _atom_site_label
 _atom_site_symmetry_multiplicity
 _atom_site_fract_x
 _atom_site_fract_y
 _atom_site_fract_z
 _atom_site_occupancy
  Li+  Li0  1  0.56422800  0.25000000  0.87500000  1
  Li+  Li1  1  0.93577200  0.25000000  0.37500000  1
  Li+  Li2  1  0.75000000  0.93577200  0.62500000  1
  Li+  Li3  1  0.75000000  0.56422800  0.12500000  1
  Li+  Li4  1  0.06422800  0.75000000  0.37500000  1
  Li+  Li5  1  0.43577200  0.75000000  0.87500000  1
  Li+  Li6  1  0.25000000  0.43577200  0.12500000  1
  Li+  Li7  1  0.25000000  0.06422800  0.62500000  1
  Ga3+  Ga8  1  0.28767400  0.25000000  0.87500000  1
  Ga3+  Ga9  1  0.21232600  0.25000000  0.37500000  1
  Ga3+  Ga10  1  0.75000000  0.21232600  0.62500000  1
  Ga3+  Ga11  1  0.75000000  0.28767400  0.12500000  1
  Ga3+  Ga12  1  0.78767400  0.75000000  0.37500000  1
  Ga3+  Ga13  1  0.71232600  0.75000000  0.87500000  1
  Ga3+  Ga14  1  0.25000000  0.71232600  0.12500000  1
  Ga3+  Ga15  1  0.25000000  0.78767400  0.62500000  1
  Se4+  Se16  1  0.94648550  0.72526650  0.65928450  1
  Se4+  Se17  1  0.44648550  0.27473350  0.59071550  1
  Se4+  Se18  1  0.05351450  0.27473350  0.65928450  1
  Se4+  Se19  1  0.05351450  0.22526650  0.09071550  1
  Se4+  Se20  1  0.72526650  0.05351450  0.34071550  1
  Se4+  Se21  1  0.72526650  0.44648550  0.40928450  1
  Se4+  Se22  1  0.27473350  0.94648550  0.34071550  1
  Se4+  Se23  1  0.77473350  0.05351450  0.90928450  1
  Se4+  Se24  1  0.44648550  0.22526650  0.15928450  1
  Se4+  Se25  1  0.94648550  0.77473350  0.09071550  1
  Se4+  Se26  1  0.55351450  0.77473350  0.15928450  1
  Se4+  Se27  1  0.55351450  0.72526650  0.59071550  1
  Se4+  Se28  1  0.22526650  0.55351450  0.84071550  1
  Se4+  Se29  1  0.22526650  0.94648550  0.90928450  1
  Se4+  Se30  1  0.77473350  0.44648550  0.84071550  1
  Se4+  Se31  1  0.27473350  0.55351450  0.40928450  1
  O2-  O32  1  0.92675900  0.79421800  0.50348300  1
  O2-  O33  1  0.42675900  0.20578200  0.74651700  1
  O2-  O34  1  0.07324100  0.20578200  0.50348300  1
  O2-  O35  1  0.07324100  0.29421800  0.24651700  1
  O2-  O36  1  0.79421800  0.07324100  0.49651700  1
  O2-  O37  1  0.79421800  0.42675900  0.25348300  1
  O2-  O38  1  0.20578200  0.92675900  0.49651700  1
  O2-  O39  1  0.70578200  0.07324100  0.75348300  1
  O2-  O40  1  0.84128900  0.81716600  0.74893000  1
  O2-  O41  1  0.34128900  0.18283400  0.50107000  1
  O2-  O42  1  0.65871100  0.68283400  0.24893000  1
  O2-  O43  1  0.15871100  0.31716600  0.00107000  1
  O2-  O44  1  0.81716600  0.15871100  0.25107000  1
  O2-  O45  1  0.81716600  0.34128900  0.49893000  1
  O2-  O46  1  0.68283400  0.34128900  0.75107000  1
  O2-  O47  1  0.68283400  0.15871100  0.99893000  1
  O2-  O48  1  0.58256000  0.29499900  0.21004900  1
  O2-  O49  1  0.58256000  0.20500100  0.53995100  1
  O2-  O50  1  0.91744000  0.20500100  0.71004900  1
  O2-  O51  1  0.91744000  0.29499900  0.03995100  1
  O2-  O52  1  0.29499900  0.41744000  0.78995100  1
  O2-  O53  1  0.79499900  0.58256000  0.46004900  1
  O2-  O54  1  0.20500100  0.08256000  0.28995100  1
  O2-  O55  1  0.70500100  0.91744000  0.96004900  1
  O2-  O56  1  0.42675900  0.29421800  0.00348300  1
  O2-  O57  1  0.92675900  0.70578200  0.24651700  1
  O2-  O58  1  0.57324100  0.70578200  0.00348300  1
  O2-  O59  1  0.57324100  0.79421800  0.74651700  1
  O2-  O60  1  0.29421800  0.57324100  0.99651700  1
  O2-  O61  1  0.29421800  0.92675900  0.75348300  1
  O2-  O62  1  0.70578200  0.42675900  0.99651700  1
  O2-  O63  1  0.20578200  0.57324100  0.25348300  1
  O2-  O64  1  0.34128900  0.31716600  0.24893000  1
  O2-  O65  1  0.84128900  0.68283400  0.00107000  1
  O2-  O66  1  0.15871100  0.18283400  0.74893000  1
  O2-  O67  1  0.65871100  0.81716600  0.50107000  1
  O2-  O68  1  0.31716600  0.65871100  0.75107000  1
  O2-  O69  1  0.31716600  0.84128900  0.99893000  1
  O2-  O70  1  0.18283400  0.84128900  0.25107000  1
  O2-  O71  1  0.18283400  0.65871100  0.49893000  1
  O2-  O72  1  0.08256000  0.79499900  0.71004900  1
  O2-  O73  1  0.08256000  0.70500100  0.03995100  1
  O2-  O74  1  0.41744000  0.70500100  0.21004900  1
  O2-  O75  1  0.41744000  0.79499900  0.53995100  1
  O2-  O76  1  0.79499900  0.91744000  0.28995100  1
  O2-  O77  1  0.29499900  0.08256000  0.96004900  1
  O2-  O78  1  0.70500100  0.58256000  0.78995100  1
  O2-  O79  1  0.20500100  0.41744000  0.46004900  1
